2023-01-24 10:11:32: case.setup starting 
 ---------------------------------------------------
2023-01-24 10:11:32: case.setup error 
ERROR: module command /usr/share/lmod/8.2.7/libexec/lmod python load 2021 CMake/3.20.1-GCCcore-10.3.0 netCDF-Fortran/4.5.3-gompi-2021a netCDF/4.8.0-gompi-2021a FlexiBLAS/3.0.4-GCC-10.3.0 NCO/5.0.1-foss-2021a failed with message:
/bin/sh: /usr/share/lmod/8.2.7/libexec/lmod: No such file or directory
 ---------------------------------------------------
2023-01-24 10:27:59: case.setup starting 
 ---------------------------------------------------
2023-01-24 10:28:04: case.setup success 
 ---------------------------------------------------
2023-01-24 12:02:24: case.build starting 
 ---------------------------------------------------
2023-01-24 12:02:31: case.build error 
ERROR: Missing required pointer_file /projects/0/uuesm2//b.e21.BSSP585cmip6.f09_g17.feedback.09/run/rpointer.ocn.restart ---has pop initial data been prestaged to /projects/0/uuesm2//b.e21.BSSP585cmip6.f09_g17.feedback.09/run?
 ---------------------------------------------------
2023-01-24 12:08:55: case.build starting 
 ---------------------------------------------------
CESM version is cesm2.1.3-rc.01
Processing externals description file : Externals.cfg
Processing externals description file : Externals_CAM.cfg
Processing externals description file : Externals_CISM.cfg
Processing externals description file : Externals_CLM.cfg
Processing externals description file : Externals_POP.cfg
Checking status of externals: cam, chem_proc, carma, clubb, cosp2, cice, cime, cism, source_cism, clm, fates, ptclm, mosart, pop, cvmix, marbl, rtm, ww3, 
    ./cime
        clean sandbox, on cime5.6.32
    ./components/cam
        clean sandbox, on cam_cesm2_1_rel_41
    ./components/cam/chem_proc
        clean sandbox, on tools/proc_atm/chem_proc/release_tags/chem_proc5_0_03_rel
    ./components/cam/src/physics/carma/base
        clean sandbox, on carma/release_tags/carma3_49_rel
    ./components/cam/src/physics/clubb
        clean sandbox, on vendor_clubb_r8099_n03
    ./components/cam/src/physics/cosp2/src
        clean sandbox, on CFMIP/COSPv2.0/tags/v2.1.4cesm/src
    ./components/cice
        clean sandbox, on cice5_cesm2_1_1_20190321
    ./components/cism
        clean sandbox, on cism-release-cesm2.1.2_02
    ./components/cism/source_cism
        clean sandbox, on release-cism2.1.03
    ./components/clm
        clean sandbox, on release-clm5.0.30
    ./components/clm/src/fates
        clean sandbox, on sci.1.30.0_api.8.0.0
    ./components/clm/tools/PTCLM
        clean sandbox, on PTCLM2_20200121
    ./components/mosart
        clean sandbox, on release-cesm2.0.04
    ./components/pop
        clean sandbox, on pop2_cesm2_1_rel_n09
    ./components/pop/externals/CVMix
        clean sandbox, on v0.93-beta
    ./components/pop/externals/MARBL
        clean sandbox, on cesm2.1-n00
    ./components/rtm
        clean sandbox, on release-cesm2.0.04
    ./components/ww3
        clean sandbox, on ww3_181001
2023-01-24 12:11:57: case.build success 
 ---------------------------------------------------
2023-01-24 12:14:34: case.submit starting 
 ---------------------------------------------------
2023-01-24 12:22:51: case.submit error 

 ---------------------------------------------------
2023-01-24 12:22:55: case.submit starting 
 ---------------------------------------------------
2023-01-24 12:23:35: case.submit success case.run:2128518, case.st_archive:2128519
 ---------------------------------------------------
2023-01-24 13:42:41: case.run starting 
 ---------------------------------------------------
2023-01-24 13:42:54: model execution starting 
 ---------------------------------------------------
2023-01-24 17:28:44: model execution success 
 ---------------------------------------------------
2023-01-24 17:28:44: case.run success 
 ---------------------------------------------------
2023-01-24 17:56:06: st_archive starting 
 ---------------------------------------------------
2023-01-24 17:56:47: st_archive success 
 ---------------------------------------------------
2023-01-31 16:40:03: xmlchange success <command> ./xmlchange PRERUN_SCRIPT=/home/kampe004/cesm/my_cases/cesm2_geo/code/check_year_feedback/check_year_feedback.py  </command>
 ---------------------------------------------------
2023-01-31 16:41:21: xmlchange success <command> ./xmlchange PRERUN_SCRIPT=  </command>
 ---------------------------------------------------
2023-01-31 16:43:07: case.submit starting 
 ---------------------------------------------------
2023-01-31 16:43:24: case.submit success case.run:2159531, case.st_archive:2159532
 ---------------------------------------------------
2023-01-31 16:54:21: case.run starting 
 ---------------------------------------------------
2023-01-31 16:54:34: model execution starting 
 ---------------------------------------------------
2023-01-31 20:35:10: model execution success 
 ---------------------------------------------------
2023-01-31 20:35:10: case.run success 
 ---------------------------------------------------
2023-01-31 20:35:33: st_archive starting 
 ---------------------------------------------------
2023-01-31 20:36:44: st_archive success 
 ---------------------------------------------------
2023-02-01 09:57:57: case.submit starting 
 ---------------------------------------------------
2023-02-01 09:58:22: case.submit success case.run:2162854, case.st_archive:2162855
 ---------------------------------------------------
2023-02-01 10:38:27: case.run starting 
 ---------------------------------------------------
2023-02-01 10:38:42: model execution starting 
 ---------------------------------------------------
2023-02-01 14:26:29: model execution success 
 ---------------------------------------------------
2023-02-01 14:26:29: case.run success 
 ---------------------------------------------------
2023-02-01 14:27:20: st_archive starting 
 ---------------------------------------------------
2023-02-01 14:28:05: st_archive success 
 ---------------------------------------------------
2023-02-01 14:28:05: case.submit starting 
 ---------------------------------------------------
2023-02-01 14:28:05: case.submit success case.run:2163929, case.st_archive:2163930
 ---------------------------------------------------
2023-02-01 15:46:42: case.run starting 
 ---------------------------------------------------
2023-02-01 15:47:03: model execution starting 
 ---------------------------------------------------
2023-02-01 19:31:53: model execution success 
 ---------------------------------------------------
2023-02-01 19:31:53: case.run success 
 ---------------------------------------------------
2023-02-01 19:33:58: st_archive starting 
 ---------------------------------------------------
2023-02-01 19:34:53: st_archive success 
 ---------------------------------------------------
2023-02-01 19:34:53: case.submit starting 
 ---------------------------------------------------
2023-02-01 19:34:53: case.submit success case.run:2165604, case.st_archive:2165605
 ---------------------------------------------------
2023-02-02 01:56:14: case.run starting 
 ---------------------------------------------------
2023-02-02 01:56:24: model execution starting 
 ---------------------------------------------------
2023-02-02 05:45:33: model execution success 
 ---------------------------------------------------
2023-02-02 05:45:33: case.run success 
 ---------------------------------------------------
2023-02-02 05:48:42: st_archive starting 
 ---------------------------------------------------
2023-02-02 05:49:29: st_archive success 
 ---------------------------------------------------
2023-02-02 05:49:29: case.submit starting 
 ---------------------------------------------------
2023-02-02 05:49:31: case.submit success case.run:2166486, case.st_archive:2166487
 ---------------------------------------------------
2023-02-02 06:00:27: case.run starting 
 ---------------------------------------------------
2023-02-02 06:00:47: model execution starting 
 ---------------------------------------------------
2023-02-02 09:53:28: model execution success 
 ---------------------------------------------------
2023-02-02 09:53:28: case.run success 
 ---------------------------------------------------
2023-02-02 09:54:16: st_archive starting 
 ---------------------------------------------------
2023-02-02 09:55:06: st_archive success 
 ---------------------------------------------------
2023-02-02 09:55:06: case.submit starting 
 ---------------------------------------------------
2023-02-02 09:55:06: case.submit success case.run:2166682, case.st_archive:2166683
 ---------------------------------------------------
2023-02-02 10:05:22: case.run starting 
 ---------------------------------------------------
2023-02-02 10:05:54: model execution starting 
 ---------------------------------------------------
2023-02-02 13:57:56: model execution success 
 ---------------------------------------------------
2023-02-02 13:57:56: case.run success 
 ---------------------------------------------------
2023-02-02 13:58:55: st_archive starting 
 ---------------------------------------------------
2023-02-02 13:59:37: st_archive success 
 ---------------------------------------------------
2023-02-03 11:44:02: case.submit starting 
 ---------------------------------------------------
2023-02-03 11:44:13: case.submit success case.run:2171296, case.st_archive:2171297
 ---------------------------------------------------
2023-02-03 13:18:20: case.run starting 
 ---------------------------------------------------
2023-02-03 13:18:39: model execution starting 
 ---------------------------------------------------
2023-02-03 17:03:13: model execution success 
 ---------------------------------------------------
2023-02-03 17:03:13: case.run success 
 ---------------------------------------------------
2023-02-03 17:03:51: st_archive starting 
 ---------------------------------------------------
2023-02-03 17:04:35: st_archive success 
 ---------------------------------------------------
2023-02-03 17:04:35: case.submit starting 
 ---------------------------------------------------
2023-02-03 17:04:35: case.submit success case.run:2173322, case.st_archive:2173323
 ---------------------------------------------------
2023-02-03 17:18:52: case.run starting 
 ---------------------------------------------------
2023-02-03 17:19:05: model execution starting 
 ---------------------------------------------------
2023-02-03 21:00:33: model execution success 
 ---------------------------------------------------
2023-02-03 21:00:33: case.run success 
 ---------------------------------------------------
2023-02-03 21:01:22: st_archive starting 
 ---------------------------------------------------
2023-02-03 21:02:06: st_archive success 
 ---------------------------------------------------
2023-02-03 21:02:06: case.submit starting 
 ---------------------------------------------------
2023-02-03 21:02:06: case.submit success case.run:2173881, case.st_archive:2173882
 ---------------------------------------------------
2023-02-03 21:17:39: case.run starting 
 ---------------------------------------------------
2023-02-03 21:17:51: model execution starting 
 ---------------------------------------------------
2023-02-04 01:25:05: model execution success 
 ---------------------------------------------------
2023-02-04 01:25:05: case.run success 
 ---------------------------------------------------
2023-02-04 01:25:38: st_archive starting 
 ---------------------------------------------------
2023-02-04 01:26:24: st_archive success 
 ---------------------------------------------------
2023-02-04 01:26:24: case.submit starting 
 ---------------------------------------------------
2023-02-04 01:26:26: case.submit success case.run:2174161, case.st_archive:2174162
 ---------------------------------------------------
2023-02-04 01:49:55: case.run starting 
 ---------------------------------------------------
2023-02-04 01:50:11: model execution starting 
 ---------------------------------------------------
2023-02-04 05:40:25: model execution success 
 ---------------------------------------------------
2023-02-04 05:40:25: case.run success 
 ---------------------------------------------------
2023-02-04 05:41:35: st_archive starting 
 ---------------------------------------------------
2023-02-04 05:42:24: st_archive success 
 ---------------------------------------------------
2023-02-04 05:42:24: case.submit starting 
 ---------------------------------------------------
2023-02-04 05:42:24: case.submit success case.run:2174274, case.st_archive:2174275
 ---------------------------------------------------
2023-02-04 06:01:46: case.run starting 
 ---------------------------------------------------
2023-02-04 06:02:00: model execution starting 
 ---------------------------------------------------
2023-02-04 09:44:16: model execution success 
 ---------------------------------------------------
2023-02-04 09:44:16: case.run success 
 ---------------------------------------------------
2023-02-04 09:44:58: st_archive starting 
 ---------------------------------------------------
2023-02-04 09:45:46: st_archive success 
 ---------------------------------------------------
2023-02-04 09:45:46: case.submit starting 
 ---------------------------------------------------
2023-02-04 09:45:47: case.submit success case.run:2174418, case.st_archive:2174419
 ---------------------------------------------------
2023-02-04 09:56:16: case.run starting 
 ---------------------------------------------------
2023-02-04 09:56:31: model execution starting 
 ---------------------------------------------------
2023-02-04 13:46:56: model execution success 
 ---------------------------------------------------
2023-02-04 13:46:56: case.run success 
 ---------------------------------------------------
2023-02-04 13:47:43: st_archive starting 
 ---------------------------------------------------
2023-02-04 13:48:24: st_archive success 
 ---------------------------------------------------
2023-02-04 13:48:24: case.submit starting 
 ---------------------------------------------------
2023-02-04 13:48:24: case.submit success case.run:2175166, case.st_archive:2175167
 ---------------------------------------------------
2023-02-04 19:37:28: case.run starting 
 ---------------------------------------------------
2023-02-04 19:37:41: model execution starting 
 ---------------------------------------------------
2023-02-06 11:25:56: case.submit starting 
 ---------------------------------------------------
2023-02-06 11:26:16: case.submit success case.run:2178082, case.st_archive:2178083
 ---------------------------------------------------
2023-02-06 11:38:11: case.run starting 
 ---------------------------------------------------
2023-02-06 11:38:35: model execution starting 
 ---------------------------------------------------
2023-02-06 16:59:58: model execution success 
 ---------------------------------------------------
2023-02-06 16:59:58: case.run success 
 ---------------------------------------------------
2023-02-06 17:01:16: st_archive starting 
 ---------------------------------------------------
2023-02-06 17:01:59: st_archive success 
 ---------------------------------------------------
2023-02-06 17:01:59: case.submit starting 
 ---------------------------------------------------
2023-02-06 17:02:00: case.submit success case.run:2179421, case.st_archive:2179422
 ---------------------------------------------------
2023-02-06 17:13:08: case.run starting 
 ---------------------------------------------------
2023-02-06 17:13:25: model execution starting 
 ---------------------------------------------------
2023-02-07 00:25:43: case.submit starting 
 ---------------------------------------------------
2023-02-07 00:26:06: case.submit success case.run:2181734, case.st_archive:2181735
 ---------------------------------------------------
2023-02-07 00:37:50: case.run starting 
 ---------------------------------------------------
2023-02-07 00:38:04: model execution starting 
 ---------------------------------------------------
2023-02-07 04:43:20: model execution success 
 ---------------------------------------------------
2023-02-07 04:43:20: case.run success 
 ---------------------------------------------------
2023-02-07 04:44:39: st_archive starting 
 ---------------------------------------------------
2023-02-07 04:45:24: st_archive success 
 ---------------------------------------------------
2023-02-07 04:45:24: case.submit starting 
 ---------------------------------------------------
2023-02-07 04:45:24: case.submit success case.run:2182246, case.st_archive:2182247
 ---------------------------------------------------
2023-02-07 04:56:59: case.run starting 
 ---------------------------------------------------
2023-02-07 04:57:12: model execution starting 
 ---------------------------------------------------
2023-02-07 09:08:58: model execution success 
 ---------------------------------------------------
2023-02-07 09:08:58: case.run success 
 ---------------------------------------------------
2023-02-07 09:09:30: st_archive starting 
 ---------------------------------------------------
2023-02-07 09:10:16: st_archive success 
 ---------------------------------------------------
2023-02-07 09:10:16: case.submit starting 
 ---------------------------------------------------
2023-02-07 09:10:16: case.submit success case.run:2182591, case.st_archive:2182592
 ---------------------------------------------------
2023-02-07 09:32:22: case.run starting 
 ---------------------------------------------------
2023-02-07 09:32:40: model execution starting 
 ---------------------------------------------------
2023-02-07 13:19:46: model execution success 
 ---------------------------------------------------
2023-02-07 13:19:46: case.run success 
 ---------------------------------------------------
2023-02-07 13:20:44: st_archive starting 
 ---------------------------------------------------
2023-02-07 13:21:33: st_archive success 
 ---------------------------------------------------
2023-02-07 13:21:33: case.submit starting 
 ---------------------------------------------------
2023-02-07 13:21:33: case.submit success case.run:2184496, case.st_archive:2184497
 ---------------------------------------------------
2023-02-07 13:43:16: case.run starting 
 ---------------------------------------------------
2023-02-07 13:43:30: model execution starting 
 ---------------------------------------------------
2023-02-07 17:35:00: model execution success 
 ---------------------------------------------------
2023-02-07 17:35:00: case.run success 
 ---------------------------------------------------
2023-02-07 17:36:18: st_archive starting 
 ---------------------------------------------------
2023-02-07 17:37:08: st_archive success 
 ---------------------------------------------------
2023-02-10 10:37:49: case.submit starting 
 ---------------------------------------------------
2023-02-10 10:38:01: case.submit success case.run:2206772, case.st_archive:2206773
 ---------------------------------------------------
2023-02-10 15:56:00: case.run starting 
 ---------------------------------------------------
2023-02-10 15:56:12: model execution starting 
 ---------------------------------------------------
2023-02-10 19:42:46: model execution success 
 ---------------------------------------------------
2023-02-10 19:42:46: case.run success 
 ---------------------------------------------------
2023-02-10 19:43:38: st_archive starting 
 ---------------------------------------------------
2023-02-10 19:44:21: st_archive success 
 ---------------------------------------------------
2023-02-10 19:44:21: case.submit starting 
 ---------------------------------------------------
2023-02-10 19:44:21: case.submit success case.run:2211679, case.st_archive:2211680
 ---------------------------------------------------
2023-02-10 19:57:44: case.run starting 
 ---------------------------------------------------
2023-02-10 19:58:00: model execution starting 
 ---------------------------------------------------
2023-02-10 23:37:56: model execution success 
 ---------------------------------------------------
2023-02-10 23:37:56: case.run success 
 ---------------------------------------------------
2023-02-10 23:41:08: st_archive starting 
 ---------------------------------------------------
2023-02-10 23:41:59: st_archive success 
 ---------------------------------------------------
2023-02-10 23:41:59: case.submit starting 
 ---------------------------------------------------
2023-02-10 23:42:02: case.submit success case.run:2212921, case.st_archive:2212931
 ---------------------------------------------------
2023-02-11 00:47:14: case.run starting 
 ---------------------------------------------------
2023-02-11 00:47:28: model execution starting 
 ---------------------------------------------------
2023-02-11 04:37:36: model execution success 
 ---------------------------------------------------
2023-02-11 04:37:36: case.run success 
 ---------------------------------------------------
2023-02-11 04:38:57: st_archive starting 
 ---------------------------------------------------
2023-02-11 04:39:43: st_archive success 
 ---------------------------------------------------
